	24
SCF DONE -436.594041477
 O   -1.280857   -0.283043   -0.305991
 O   -0.926313    0.271665    2.845969
 O   -3.649910   -0.030107    2.269216
 O   -3.369508    2.497100    0.159225
 O    3.844657   -2.382065    0.448171
 O    3.743739   -2.548662   -2.351866
 O    4.125060    0.145141   -1.661821
 O    1.756006    0.398078    0.913386
 O   -3.268590    2.663697    2.959262
 O   -0.661804    2.655631    0.855570
 O    1.401463   -0.156630   -2.238574
 O    1.136953   -2.540595   -0.248175
Sn    0.626597    1.674790    2.292457
Sn   -0.151448   -1.559755   -1.685062
Sn    5.223644   -1.562017   -0.973460
Sn   -2.312682    3.929943    1.494494
Sn    2.787830   -3.814908   -0.887098
Sn   -2.649589    0.893464    4.029682
Sn    2.099473   -1.662780    1.514338
Sn   -4.748495    1.677052    1.580856
Sn    3.124738   -0.778430   -3.422286
Sn    2.427195    1.290899   -0.951721
Sn   -1.952045   -1.175864    1.559116
Sn   -1.624325    1.777816   -0.906942
